<edges>
<edge from="301037252" to="564483463" id="301037252to564483463" numLanes="1" shape="-440.01538389909547,232.83418546570465 -435.54976145981345,231.1306881280616 -433.2187978418078,228.92263433430344 -431.5576154162409,226.40303215943277 -429.97607327788137,221.80880352295935 -430.3332144138403,218.3100454127416 -431.5200349543011,214.14205508911982 -431.5200349543011,214.14205508911982" />
<edge from="301037252" to="4233527012" id="301037252to4233527012" numLanes="1" shape="-440.01538389909547,232.83418546570465 -432.3396458546631,259.62608179077506 -428.787172019016,272.03013089159504 -428.787172019016,272.03013089159504" />
<edge from="301037252" to="564483461" id="301037252to564483461" numLanes="1" shape="-440.01538389909547,232.83418546570465 -440.01538389909547,232.83418546570465 -444.4629035817925,233.00807842006907 -448.706387066748,231.65575732523575 -452.22021759988274,228.94201665371656 -454.5992413260974,225.19575124699622" />
<edge from="301037253" to="301037255" id="301037253to301037255" numLanes="1" shape="-590.0250572609948,287.5388969173655 -641.3266948797973,172.86801751097664" />
<edge from="301037253" to="564483461" id="301037253to564483461" numLanes="1" shape="-590.0250572609948,287.5388969173655 -454.5992413260974,225.19575124699622" />
<edge from="301037253" to="4233527053" id="301037253to4233527053" numLanes="1" shape="-590.0250572609948,287.5388969173655 -556.1009157914668,363.0352349835448 -548.3439242639579,380.0058989007957 -548.3439242639579,380.0058989007957" />
<edge from="301037254" to="4233527085" id="301037254to4233527085" numLanes="1" shape="-501.27465847763233,481.8729091878049 -487.47500668035354,513.1777655351907 -471.4646882102825,549.4010121813044 -471.4646882102825,549.4010121813044" />
<edge from="301037254" to="473651125" id="301037254to473651125" numLanes="1" shape="-501.27465847763233,481.8729091878049 -499.3413635396864,480.5334296054207 -497.88826849486213,478.68630357738584 -497.0358344486449,476.49563219584525 -496.846413760446,474.1598354810849 -497.36258512642235,471.86660756124184 -498.5194848149549,469.8166879606433 -498.5194848149549,469.8166879606433" />
<edge from="301037254" to="564483517" id="301037254to564483517" numLanes="1" shape="-501.27465847763233,481.8729091878049 -501.27465847763233,481.8729091878049 -503.5002017595107,482.59730409737676 -505.83105230832007,482.6545900614001 -508.0910652165767,482.04797832109034 -510.0753441263223,480.8144636005163 -511.61955019354355,479.0679065720178 -512.589307987364,476.9548810906708" />
<edge from="301037255" to="301037253" id="301037255to301037253" numLanes="1" shape="-641.3266948797973,172.86801751097664 -590.0250572609948,287.5388969173655" />
<edge from="301037255" to="4233524684" id="301037255to4233524684" numLanes="1" shape="-641.3266948797973,172.86801751097664 -653.4212856264785,148.9448139835149" />
<edge from="301037255" to="3636985389" id="301037255to3636985389" numLanes="1" shape="-641.3266948797973,172.86801751097664 -545.9747484908439,136.67853991035372 -536.578421189799,135.68570683943108 -519.3666015900671,139.86859484296292 -507.9915694388328,144.1779316905886 -467.8872517957352,159.3657994349487 -467.8872517957352,159.3657994349487" />
<edge from="473651125" to="301037254" id="473651125to301037254" numLanes="1" shape="-498.5194848149549,469.8166879606433 -498.5194848149549,469.8166879606433 -497.36258512642235,471.86660756124184 -496.846413760446,474.1598354810849 -497.0358344486449,476.49563219584525 -497.88826849486213,478.68630357738584 -499.3413635396864,480.5334296054207 -501.27465847763233,481.8729091878049" />
<edge from="473651125" to="4999072816" id="473651125to4999072816" numLanes="1" shape="-498.5194848149549,469.8166879606433 -475.4187891330803,462.3886188548058" />
<edge from="473651125" to="564483496" id="473651125to564483496" numLanes="1" shape="-498.5194848149549,469.8166879606433 -500.26122655696236,468.1663066325709 -502.42488549638074,467.106904421933 -504.7965867128223,466.71998599823564 -507.7811868808931,467.1977277365513 -507.7811868808931,467.1977277365513" />
<edge from="564483317" to="4233524655" id="564483317to4233524655" numLanes="1" shape="-721.2795193284983,-2.2133917175233364 -770.1055593141355,21.232442833017558" />
<edge from="564483317" to="4233524647" id="564483317to4233524647" numLanes="1" shape="-721.2795193284983,-2.2133917175233364 -685.7903754420113,-18.46290929056704" />
<edge from="564483317" to="4233524630" id="564483317to4233524630" numLanes="1" shape="-721.2795193284983,-2.2133917175233364 -758.1743499523727,-78.1289789993316" />
<edge from="564483317" to="4233524657" id="564483317to4233524657" numLanes="1" shape="-721.2795193284983,-2.2133917175233364 -709.1706080833683,27.92948363814503" />
<edge from="564483459" to="3636985386" id="564483459to3636985386" numLanes="1" shape="-447.2349129136419,208.40095268702134 -449.6192203643732,194.74326614337042" />
<edge from="564483459" to="564483461" id="564483459to564483461" numLanes="1" shape="-447.2349129136419,208.40095268702134 -451.5619489548262,211.09367964277044 -454.49627119500656,215.2530451491475 -455.5656086015515,220.21138303540647 -454.5992413260974,225.19575124699622 -454.5992413260974,225.19575124699622" />
<edge from="564483459" to="564483463" id="564483459to564483463" numLanes="1" shape="-447.2349129136419,208.40095268702134 -447.2349129136419,208.40095268702134 -441.25983096892014,207.66732726804912 -438.7644961280748,208.25606559496373 -435.6003029291751,209.74392021307722 -433.9625368207926,211.19285532692447 -431.5200349543011,214.14205508911982" />
<edge from="564483461" to="301037253" id="564483461to301037253" numLanes="1" shape="-454.5992413260974,225.19575124699622 -590.0250572609948,287.5388969173655" />
<edge from="564483461" to="564483459" id="564483461to564483459" numLanes="1" shape="-454.5992413260974,225.19575124699622 -454.5992413260974,225.19575124699622 -455.5656086015515,220.21138303540647 -454.49627119500656,215.2530451491475 -451.5619489548262,211.09367964277044 -447.2349129136419,208.40095268702134" />
<edge from="564483461" to="301037252" id="564483461to301037252" numLanes="1" shape="-454.5992413260974,225.19575124699622 -452.22021759988274,228.94201665371656 -448.706387066748,231.65575732523575 -444.4629035817925,233.00807842006907 -440.01538389909547,232.83418546570465 -440.01538389909547,232.83418546570465" />
<edge from="564483463" to="301037252" id="564483463to301037252" numLanes="1" shape="-431.5200349543011,214.14205508911982 -431.5200349543011,214.14205508911982 -430.3332144138403,218.3100454127416 -429.97607327788137,221.80880352295935 -431.5576154162409,226.40303215943277 -433.2187978418078,228.92263433430344 -435.54976145981345,231.1306881280616 -440.01538389909547,232.83418546570465" />
<edge from="564483463" to="3055043751" id="564483463to3055043751" numLanes="1" shape="-431.5200349543011,214.14205508911982 -285.8266343752621,148.76178195653483" />
<edge from="564483463" to="564483459" id="564483463to564483459" numLanes="1" shape="-431.5200349543011,214.14205508911982 -433.9625368207926,211.19285532692447 -435.6003029291751,209.74392021307722 -438.7644961280748,208.25606559496373 -441.25983096892014,207.66732726804912 -447.2349129136419,208.40095268702134 -447.2349129136419,208.40095268702134" />
<edge from="564483496" to="473651125" id="564483496to473651125" numLanes="1" shape="-507.7811868808931,467.1977277365513 -507.7811868808931,467.1977277365513 -504.7965867128223,466.71998599823564 -502.42488549638074,467.106904421933 -500.26122655696236,468.1663066325709 -498.5194848149549,469.8166879606433" />
<edge from="564483496" to="4233527053" id="564483496to4233527053" numLanes="1" shape="-507.7811868808931,467.1977277365513 -548.3439242639579,380.0058989007957" />
<edge from="564483496" to="564483517" id="564483496to564483517" numLanes="1" shape="-507.7811868808931,467.1977277365513 -509.4330032400321,468.1321399109438 -511.24595188943204,469.8507558167912 -512.4408885834273,472.03518430236727 -512.9065325037809,474.48789695836604 -512.589307987364,476.9548810906708 -512.589307987364,476.9548810906708" />
<edge from="564483517" to="564483496" id="564483517to564483496" numLanes="1" shape="-512.589307987364,476.9548810906708 -512.589307987364,476.9548810906708 -512.9065325037809,474.48789695836604 -512.4408885834273,472.03518430236727 -511.24595188943204,469.8507558167912 -509.4330032400321,468.1321399109438 -507.7811868808931,467.1977277365513" />
<edge from="564483517" to="4233527074" id="564483517to4233527074" numLanes="1" shape="-512.589307987364,476.9548810906708 -532.58889914467,491.4794676466845" />
<edge from="564483517" to="301037254" id="564483517to301037254" numLanes="1" shape="-512.589307987364,476.9548810906708 -511.61955019354355,479.0679065720178 -510.0753441263223,480.8144636005163 -508.0910652165767,482.04797832109034 -505.83105230832007,482.6545900614001 -503.5002017595107,482.59730409737676 -501.27465847763233,481.8729091878049 -501.27465847763233,481.8729091878049" />
<edge from="2102480543" to="4233524597" id="2102480543to4233524597" numLanes="1" shape="816.8649141294882,-449.06508135190234 792.9864644632908,-507.23070697067305" />
<edge from="2102480543" to="4233654430" id="2102480543to4233654430" numLanes="1" shape="816.8649141294882,-449.06508135190234 753.4781353838043,-422.0118856546469" />
<edge from="2102480543" to="9186411596" id="2102480543to9186411596" numLanes="1" shape="816.8649141294882,-449.06508135190234 830.2176131864544,-418.05497279344127 849.9370597783709,-365.34250404220074 849.9370597783709,-365.34250404220074" />
<edge from="2102480543" to="4233524600" id="2102480543to4233524600" numLanes="1" shape="816.8649141294882,-449.06508135190234 838.3260012122337,-457.68492515338585 842.3509170275647,-458.81955083692446 847.110304544447,-458.8985671023838 851.8601697380655,-457.9245309638791 889.386458164663,-446.2494491818361 889.386458164663,-446.2494491818361" />
<edge from="2102480576" to="4233654441" id="2102480576to4233654441" numLanes="1" shape="539.554331100313,-336.8177225054242 516.6373985733371,-397.2932721590623" />
<edge from="2102480576" to="4233654471" id="2102480576to4233654471" numLanes="1" shape="539.554331100313,-336.8177225054242 596.368278669077,-359.9790693866089" />
<edge from="2102480576" to="4233654506" id="2102480576to4233654506" numLanes="1" shape="539.554331100313,-336.8177225054242 543.4181125941686,-325.4164980673231 545.4018902265234,-320.94554286124185 547.7466672483133,-317.4768524938263 550.3291622175602,-314.1590195838362 552.8237362225773,-311.38603769103065 555.3588329774793,-309.2220737799071 563.5787155553699,-304.2156070517376 563.5787155553699,-304.2156070517376" />
<edge from="2102480576" to="4233654485" id="2102480576to4233654485" numLanes="1" shape="539.554331100313,-336.8177225054242 530.8082300750539,-333.94017708906904 524.4925221995218,-332.80305468151346 519.5805140918819,-332.4051967016421 515.3620458751684,-332.9924268457107 502.4820853014244,-337.9954940136522 502.4820853014244,-337.9954940136522" />
<edge from="2102480797" to="4233524615" id="2102480797to4233524615" numLanes="1" shape="672.2632896609139,-240.51657821750268 684.7888672690606,-212.98080523032695" />
<edge from="2102480797" to="4233524611" id="2102480797to4233524611" numLanes="1" shape="672.2632896609139,-240.51657821750268 669.4985949594993,-243.5051841614768 667.5666788563831,-244.9264086377807 665.1160768084228,-246.35713777085766 631.8607887169346,-261.88901791954413 631.8607887169346,-261.88901791954413" />
<edge from="2102480797" to="4233654563" id="2102480797to4233654563" numLanes="1" shape="672.2632896609139,-240.51657821750268 677.734079466667,-241.49171762820333 681.441950083361,-241.35724618518725 685.0346908462234,-240.28252500249073 708.499733012286,-224.19821905810386 708.499733012286,-224.19821905810386" />
<edge from="2102480799" to="2102480801" id="2102480799to2102480801" numLanes="1" shape="976.2829892772716,-192.87869149586186 985.5871182762785,-168.55024794209749" />
<edge from="2102480799" to="4233654507" id="2102480799to4233654507" numLanes="1" shape="976.2829892772716,-192.87869149586186 936.61060560646,-290.8250021687709" />
<edge from="2102480799" to="2102480800" id="2102480799to2102480800" numLanes="1" shape="976.2829892772716,-192.87869149586186 926.6809854814783,-172.75762282917276" />
<edge from="2102480800" to="2102480799" id="2102480800to2102480799" numLanes="1" shape="926.6809854814783,-172.75762282917276 976.2829892772716,-192.87869149586186" />
<edge from="2102480800" to="4233654565" id="2102480800to4233654565" numLanes="1" shape="926.6809854814783,-172.75762282917276 912.3419143485371,-215.07213886687532" />
<edge from="2102480800" to="4233524618" id="2102480800to4233524618" numLanes="1" shape="926.6809854814783,-172.75762282917276 939.2007410435472,-146.54093346791342" />
<edge from="2102480800" to="2102480803" id="2102480800to2102480803" numLanes="1" shape="926.6809854814783,-172.75762282917276 810.0382434075,-126.96990417828783 731.4213164440589,-92.49083520192653 731.4213164440589,-92.49083520192653" />
<edge from="2102480801" to="2102480799" id="2102480801to2102480799" numLanes="1" shape="985.5871182762785,-168.55024794209749 976.2829892772716,-192.87869149586186" />
<edge from="2102480801" to="4233524618" id="2102480801to4233524618" numLanes="1" shape="985.5871182762785,-168.55024794209749 939.2007410435472,-146.54093346791342" />
<edge from="2102480803" to="2102480800" id="2102480803to2102480800" numLanes="1" shape="731.4213164440589,-92.49083520192653 731.4213164440589,-92.49083520192653 810.0382434075,-126.96990417828783 926.6809854814783,-172.75762282917276" />
<edge from="2102480803" to="4233524619" id="2102480803to4233524619" numLanes="1" shape="731.4213164440589,-92.49083520192653 704.0424422086217,-163.148551160004" />
<edge from="2102480803" to="4233524625" id="2102480803to4233524625" numLanes="1" shape="731.4213164440589,-92.49083520192653 718.4543221979402,-86.85265195928514" />
<edge from="2102480803" to="2102480808" id="2102480803to2102480808" numLanes="1" shape="731.4213164440589,-92.49083520192653 778.0397125601303,32.44487974932417" />
<edge from="2102480805" to="9186411589" id="2102480805to9186411589" numLanes="1" shape="984.3557981727645,-17.71753283124417 985.0485734423855,-22.926605010870844 983.6865090531064,-30.856347967404872 949.1476784081897,-123.63089569704607 949.1476784081897,-123.63089569704607" />
<edge from="2102480805" to="4233524646" id="2102480805to4233524646" numLanes="1" shape="984.3557981727645,-17.71753283124417 980.3239828336518,-14.066435203421861 971.82815319777,-10.951815366744995 931.5834460526239,-3.508447917178273 890.1423326658551,6.1858549998141825 864.6976266760612,12.138207096140832 852.6098703701282,15.209192803129554 852.6098703701282,15.209192803129554" />
<edge from="2102480808" to="2102480803" id="2102480808to2102480803" numLanes="1" shape="778.0397125601303,32.44487974932417 731.4213164440589,-92.49083520192653" />
<edge from="2102480808" to="4233524646" id="2102480808to4233524646" numLanes="1" shape="778.0397125601303,32.44487974932417 790.0511678577168,29.26155523583293 852.6098703701282,15.209192803129554 852.6098703701282,15.209192803129554" />
<edge from="3055043750" to="3055043751" id="3055043750to3055043751" numLanes="1" shape="-272.5130939851515,181.48817934514955 -285.8266343752621,148.76178195653483" />
<edge from="3055043750" to="9865522290" id="3055043750to9865522290" numLanes="1" shape="-272.5130939851515,181.48817934514955 -170.8802721351385,203.49851584853604 -132.00299015594646,212.94453776534647 -129.52352415665518,213.86564882844687 -127.60672292392701,215.04256214853376 -126.51410818006843,216.85852992720902 -126.65634961845353,220.35927184065804 -128.78292793035507,241.92806050926447 -131.91994003206491,266.2943737129681 -131.91994003206491,266.2943737129681" />
<edge from="3055043750" to="4233527014" id="3055043750to4233527014" numLanes="1" shape="-272.5130939851515,181.48817934514955 -260.18432780064177,210.23874474689364 -259.5724248685874,212.11244479054585 -259.2118954719044,215.4228033288382 -259.18045255262405,218.52759909257293 -259.72372806305066,223.08532542642206 -265.2917168693384,258.3718433068134 -268.21257525426336,274.12789902836084 -275.1876634664368,303.91200702032074 -275.1876634664368,303.91200702032074" />
<edge from="3055043751" to="564483463" id="3055043751to564483463" numLanes="1" shape="-285.8266343752621,148.76178195653483 -431.5200349543011,214.14205508911982" />
<edge from="3055043751" to="3055043750" id="3055043751to3055043750" numLanes="1" shape="-285.8266343752621,148.76178195653483 -272.5130939851515,181.48817934514955" />
<edge from="3055043751" to="4233524645" id="3055043751to4233524645" numLanes="1" shape="-285.8266343752621,148.76178195653483 -304.3757247700123,107.34784432686865 -308.76853736431804,97.54483675863594 -311.7398134912364,89.77442293614149 -321.8844624571502,70.60925815813243 -323.86079213104676,68.40024976991117 -329.4325443680864,64.72875266661867 -350.37512588244863,46.64158913586289 -357.905256772181,37.09180156746879 -363.6547449621139,28.67206069966778 -371.30544399365317,12.312976598739624 -375.37151704146527,3.912860184907913 -378.0477449715836,-4.472992945462465 -377.82623085018713,-12.861429210286587 -377.82623085018713,-12.861429210286587" />
<edge from="3055043752" to="3178456078" id="3055043752to3178456078" numLanes="1" shape="-402.72409344569314,361.9845558833331 -275.7742250311421,365.02121929079294" />
<edge from="3055043752" to="4999072808" id="3055043752to4999072808" numLanes="1" shape="-402.72409344569314,361.9845558833331 -387.1602239240892,416.78074587509036 -386.4786378943827,419.66458168812096 -387.1020142850466,422.71308541530743 -388.399165908806,424.59630344063044 -392.2344215690391,427.16493618069217 -392.2344215690391,427.16493618069217" />
<edge from="3055043752" to="6758737653" id="3055043752to6758737653" numLanes="1" shape="-402.72409344569314,361.9845558833331 -409.12888156366535,340.65927478391677 -410.2424433545675,336.76977848121896 -410.2424433545675,336.76977848121896" />
<edge from="3178456078" to="3055043752" id="3178456078to3055043752" numLanes="1" shape="-275.7742250311421,365.02121929079294 -402.72409344569314,361.9845558833331" />
<edge from="3178456078" to="4233527016" id="3178456078to4233527016" numLanes="1" shape="-275.7742250311421,365.02121929079294 -276.41820492665283,313.94501314498484" />
<edge from="3178456078" to="4233527043" id="3178456078to4233527043" numLanes="1" shape="-275.7742250311421,365.02121929079294 -247.01341460307594,366.08935431391" />
<edge from="3178456078" to="9835228889" id="3178456078to9835228889" numLanes="1" shape="-275.7742250311421,365.02121929079294 -276.31830234383233,404.49034658493474 -278.1565942156594,410.27721603307873 -279.6853602930205,413.58635633671656 -283.9636096713366,417.8985399296507 -283.9636096713366,417.8985399296507" />
<edge from="3635907904" to="4233524660" id="3635907904to4233524660" numLanes="1" shape="-696.4620544622885,52.018998126499355 -660.8904343574541,40.37195340404287" />
<edge from="3635907904" to="4233524657" id="3635907904to4233524657" numLanes="1" shape="-696.4620544622885,52.018998126499355 -709.1706080833683,27.92948363814503" />
<edge from="3635907904" to="3636985377" id="3635907904to3636985377" numLanes="1" shape="-696.4620544622885,52.018998126499355 -676.0608397988835,95.0180352688767" />
<edge from="3635907910" to="4233524655" id="3635907910to4233524655" numLanes="1" shape="-835.8274650882231,51.643679631873965 -770.1055593141355,21.232442833017558" />
<edge from="3635907910" to="9835190696" id="3635907910to9835190696" numLanes="1" shape="-835.8274650882231,51.643679631873965 -837.729244640097,47.48490539891645" />
<edge from="3635907910" to="9835190697" id="3635907910to9835190697" numLanes="1" shape="-835.8274650882231,51.643679631873965 -834.3022087069694,54.97520367242396" />
<edge from="3635907914" to="9835164854" id="3635907914to9835164854" numLanes="1" shape="-536.0067291271407,-14.392687915358692 -564.982250813162,-1.040440066717565" />
<edge from="3635907914" to="4233524645" id="3635907914to4233524645" numLanes="1" shape="-536.0067291271407,-14.392687915358692 -484.6549390683649,-37.802643567323685 -469.1615074397996,-42.98584770504385 -445.5991018473869,-48.29908500937745 -435.4674284354551,-49.34496165346354 -430.43828204018064,-49.19783310499042 -423.9209549590014,-47.449285824783146 -416.2954991417937,-44.19493900751695 -408.2193330399459,-38.81484826328233 -397.40873674477916,-30.923685051500797 -389.63899437338114,-25.38287059450522 -383.88713544630446,-20.31122457794845 -380.5629340162268,-16.858132439199835 -377.82623085018713,-12.861429210286587 -377.82623085018713,-12.861429210286587" />
<edge from="3635907914" to="9835164855" id="3635907914to9835164855" numLanes="1" shape="-536.0067291271407,-14.392687915358692 -558.8866604263894,-69.08904523402452 -561.1272879377939,-71.30282387463376 -563.4484444343252,-72.32072961842641 -565.9967218916863,-72.15652007516474 -592.6308701420203,-60.513196292798966 -592.6308701420203,-60.513196292798966" />
<edge from="3635907923" to="4233524639" id="3635907923to4233524639" numLanes="1" shape="-867.1687042586273,-29.303485627286136 -823.1950494319899,-49.700567591935396" />
<edge from="3635907923" to="9835190659" id="3635907923to9835190659" numLanes="1" shape="-867.1687042586273,-29.303485627286136 -874.00353411166,-46.42338843271136 -888.4963706755079,-76.85332601843402 -904.2371920603327,-107.02878094417974 -907.0371658166405,-112.40121615026146 -913.3380322220037,-124.97701275348663 -913.195906826295,-126.87021059123799 -911.342692292179,-129.18682559998706 -908.8672922989354,-131.8025423642248 -849.0326702864841,-170.03755059232935 -849.0326702864841,-170.03755059232935" />
<edge from="3635907923" to="9835190696" id="3635907923to9835190696" numLanes="1" shape="-867.1687042586273,-29.303485627286136 -857.4210491979029,-3.871161106042564 -837.729244640097,47.48490539891645 -837.729244640097,47.48490539891645" />
<edge from="3635907929" to="9835190693" id="3635907929to9835190693" numLanes="1" shape="-802.3342378654052,-176.0613073776476 -799.5204649898224,-169.8349365396425" />
<edge from="3635907929" to="9835190659" id="3635907929to9835190659" numLanes="1" shape="-802.3342378654052,-176.0613073776476 -806.5870306649012,-184.44246793631464 -808.4022711124271,-186.9034400130622 -810.9261593698757,-188.0801933077164 -814.6065531908534,-188.6460657119751 -817.4167569158599,-188.0763678997755 -827.3945975756506,-183.11383628239855 -849.0326702864841,-170.03755059232935 -849.0326702864841,-170.03755059232935" />
<edge from="3635907929" to="3635907930" id="3635907929to3635907930" numLanes="1" shape="-802.3342378654052,-176.0613073776476 -704.1331786356168,-237.42209208244458" />
<edge from="3635907930" to="3635907929" id="3635907930to3635907929" numLanes="1" shape="-704.1331786356168,-237.42209208244458 -802.3342378654052,-176.0613073776476" />
<edge from="3635907930" to="9835190695" id="3635907930to9835190695" numLanes="1" shape="-704.1331786356168,-237.42209208244458 -699.7773148209089,-232.5534238498658" />
<edge from="3635907930" to="3635907938" id="3635907930to3635907938" numLanes="1" shape="-704.1331786356168,-237.42209208244458 -709.2000233302824,-244.6429482284002 -710.085640413803,-249.76993413828313 -708.5054755269084,-254.8298501279205 -703.969293537084,-260.4013517536223 -695.2172589619877,-266.3173714922741 -695.2172589619877,-266.3173714922741" />
<edge from="3635907938" to="3635907930" id="3635907938to3635907930" numLanes="1" shape="-695.2172589619877,-266.3173714922741 -695.2172589619877,-266.3173714922741 -703.969293537084,-260.4013517536223 -708.5054755269084,-254.8298501279205 -710.085640413803,-249.76993413828313 -709.2000233302824,-244.6429482284002 -704.1331786356168,-237.42209208244458" />
<edge from="3635907938" to="4233654570" id="3635907938to4233654570" numLanes="1" shape="-695.2172589619877,-266.3173714922741 -669.4959170878865,-286.4143789024092 -664.4628290142864,-288.6287048505619 -658.5762091074139,-288.2554235206917 -652.8997540890705,-286.5555905601941 -622.3176340657519,-269.3023454025388 -607.3417710637441,-262.72134298458695 -602.6577096151887,-260.28568195318803 -598.5498512655031,-256.85164672043175 -595.4256287729368,-249.4000529171899 -594.8054116788553,-243.67921976884827 -597.0013159194496,-233.84117570705712 -597.0013159194496,-233.84117570705712" />
<edge from="3636985377" to="3635907904" id="3636985377to3635907904" numLanes="1" shape="-676.0608397988835,95.0180352688767 -696.4620544622885,52.018998126499355" />
<edge from="3636985377" to="3636985378" id="3636985377to3636985378" numLanes="1" shape="-676.0608397988835,95.0180352688767 -791.2793305356754,148.6406785189174" />
<edge from="3636985377" to="4233524684" id="3636985377to4233524684" numLanes="1" shape="-676.0608397988835,95.0180352688767 -653.4212856264785,148.9448139835149" />
<edge from="3636985378" to="3636985377" id="3636985378to3636985377" numLanes="1" shape="-791.2793305356754,148.6406785189174 -676.0608397988835,95.0180352688767" />
<edge from="3636985378" to="9835190697" id="3636985378to9835190697" numLanes="1" shape="-791.2793305356754,148.6406785189174 -834.3022087069694,54.97520367242396" />
<edge from="3636985378" to="6095495876" id="3636985378to6095495876" numLanes="1" shape="-791.2793305356754,148.6406785189174 -827.4180544954725,162.42853542463854 -832.0170993888751,165.54881797684357 -835.1573044904508,169.19454397866502 -839.6207807546016,183.69200710300356 -842.7740897083422,188.058116232045 -846.6139453118667,190.88179954933003 -850.9580512359971,191.29054490150884 -859.2014598263195,190.79684609686956 -888.1267422740348,183.6851357021369 -896.9508088749135,179.05673597753048 -900.3453120959457,175.15905920183286 -903.2323906063102,168.12206190405414 -931.3262159603182,99.69532413501292 -931.3262159603182,99.69532413501292" />
<edge from="3636985378" to="3636985385" id="3636985378to3636985385" numLanes="1" shape="-791.2793305356754,148.6406785189174 -784.783637139597,167.7056972840801 -783.6276549523463,175.18793339794502 -784.6589156667469,182.36427665688097 -789.4421647751005,196.67852076003328 -789.4421647751005,196.67852076003328" />
<edge from="3636985385" to="3636985378" id="3636985385to3636985378" numLanes="1" shape="-789.4421647751005,196.67852076003328 -789.4421647751005,196.67852076003328 -784.6589156667469,182.36427665688097 -783.6276549523463,175.18793339794502 -784.783637139597,167.7056972840801 -791.2793305356754,148.6406785189174" />
<edge from="3636985386" to="564483459" id="3636985386to564483459" numLanes="1" shape="-449.6192203643732,194.74326614337042 -447.2349129136419,208.40095268702134" />
<edge from="3636985386" to="3636985389" id="3636985386to3636985389" numLanes="1" shape="-449.6192203643732,194.74326614337042 -452.64895627158694,178.900860411115 -455.0177749132272,170.29889899631962 -457.5891874113586,165.8285058788024 -461.84918305056635,162.15881409682333 -467.8872517957352,159.3657994349487 -467.8872517957352,159.3657994349487" />
<edge from="3636985389" to="301037255" id="3636985389to301037255" numLanes="1" shape="-467.8872517957352,159.3657994349487 -467.8872517957352,159.3657994349487 -507.9915694388328,144.1779316905886 -519.3666015900671,139.86859484296292 -536.578421189799,135.68570683943108 -545.9747484908439,136.67853991035372 -641.3266948797973,172.86801751097664" />
<edge from="3636985389" to="3636985386" id="3636985389to3636985386" numLanes="1" shape="-467.8872517957352,159.3657994349487 -467.8872517957352,159.3657994349487 -461.84918305056635,162.15881409682333 -457.5891874113586,165.8285058788024 -455.0177749132272,170.29889899631962 -452.64895627158694,178.900860411115 -449.6192203643732,194.74326614337042" />
<edge from="4233524596" to="4233524597" id="4233524596to4233524597" numLanes="1" shape="882.3698558026226,-541.944488002453 792.9864644632908,-507.23070697067305" />
<edge from="4233524596" to="4233524600" id="4233524596to4233524600" numLanes="1" shape="882.3698558026226,-541.944488002453 901.8103251199936,-475.62273198366165 901.5631555115106,-472.82236032467335 900.9508278921712,-469.8623882648535 889.386458164663,-446.2494491818361 889.386458164663,-446.2494491818361" />
<edge from="4233524597" to="2102480543" id="4233524597to2102480543" numLanes="1" shape="792.9864644632908,-507.23070697067305 816.8649141294882,-449.06508135190234" />
<edge from="4233524597" to="4233524596" id="4233524597to4233524596" numLanes="1" shape="792.9864644632908,-507.23070697067305 882.3698558026226,-541.944488002453" />
<edge from="4233524597" to="4233654441" id="4233524597to4233654441" numLanes="1" shape="792.9864644632908,-507.23070697067305 516.6373985733371,-397.2932721590623" />
<edge from="4233524600" to="2102480543" id="4233524600to2102480543" numLanes="1" shape="889.386458164663,-446.2494491818361 889.386458164663,-446.2494491818361 851.8601697380655,-457.9245309638791 847.110304544447,-458.8985671023838 842.3509170275647,-458.81955083692446 838.3260012122337,-457.68492515338585 816.8649141294882,-449.06508135190234" />
<edge from="4233524600" to="4233524596" id="4233524600to4233524596" numLanes="1" shape="889.386458164663,-446.2494491818361 889.386458164663,-446.2494491818361 900.9508278921712,-469.8623882648535 901.5631555115106,-472.82236032467335 901.8103251199936,-475.62273198366165 882.3698558026226,-541.944488002453" />
<edge from="4233524600" to="9186411596" id="4233524600to9186411596" numLanes="1" shape="889.386458164663,-446.2494491818361 868.5858486541547,-402.65050339046866 849.9370597783709,-365.34250404220074 849.9370597783709,-365.34250404220074" />