<nodes>
<node id="301037252" x="-440.01538389909547" y="232.83418546570465" />
<node id="301037253" x="-590.0250572609948" y="287.5388969173655" />
<node id="301037254" x="-501.27465847763233" y="481.8729091878049" />
<node id="301037255" x="-641.3266948797973" y="172.86801751097664" />
<node id="473651125" x="-498.5194848149549" y="469.8166879606433" />
<node id="564483317" x="-721.2795193284983" y="-2.2133917175233364" />
<node id="564483459" x="-447.2349129136419" y="208.40095268702134" />
<node id="564483461" x="-454.5992413260974" y="225.19575124699622" />
<node id="564483463" x="-431.5200349543011" y="214.14205508911982" />
<node id="564483496" x="-507.7811868808931" y="467.1977277365513" />
<node id="564483517" x="-512.589307987364" y="476.9548810906708" />
<node id="2102480543" x="816.8649141294882" y="-449.06508135190234" />
<node id="2102480576" x="539.554331100313" y="-336.8177225054242" />
<node id="2102480797" x="672.2632896609139" y="-240.51657821750268" />
<node id="2102480799" x="976.2829892772716" y="-192.87869149586186" />
<node id="2102480800" x="926.6809854814783" y="-172.75762282917276" />
<node id="2102480801" x="985.5871182762785" y="-168.55024794209749" />
<node id="2102480803" x="731.4213164440589" y="-92.49083520192653" />
<node id="2102480805" x="984.3557981727645" y="-17.71753283124417" />
<node id="2102480808" x="778.0397125601303" y="32.44487974932417" />
<node id="3055043750" x="-272.5130939851515" y="181.48817934514955" />
<node id="3055043751" x="-285.8266343752621" y="148.76178195653483" />
<node id="3055043752" x="-402.72409344569314" y="361.9845558833331" />
<node id="3178456078" x="-275.7742250311421" y="365.02121929079294" />
<node id="3635907904" x="-696.4620544622885" y="52.018998126499355" />
<node id="3635907910" x="-835.8274650882231" y="51.643679631873965" />
<node id="3635907914" x="-536.0067291271407" y="-14.392687915358692" />
<node id="3635907923" x="-867.1687042586273" y="-29.303485627286136" />
<node id="3635907929" x="-802.3342378654052" y="-176.0613073776476" />
<node id="3635907930" x="-704.1331786356168" y="-237.42209208244458" />
<node id="3635907938" x="-695.2172589619877" y="-266.3173714922741" />
<node id="3636985377" x="-676.0608397988835" y="95.0180352688767" />
<node id="3636985378" x="-791.2793305356754" y="148.6406785189174" />
<node id="3636985385" x="-789.4421647751005" y="196.67852076003328" />
<node id="3636985386" x="-449.6192203643732" y="194.74326614337042" />
<node id="3636985389" x="-467.8872517957352" y="159.3657994349487" />
<node id="4233524596" x="882.3698558026226" y="-541.944488002453" />
<node id="4233524597" x="792.9864644632908" y="-507.23070697067305" />
<node id="4233524600" x="889.386458164663" y="-446.2494491818361" />
<node id="4233524604" x="903.3595928737195" y="-388.2320265388116" />
<node id="4233524606" x="924.8464537728578" y="-366.24116989504546" />
<node id="4233524607" x="853.3251112191938" y="-353.63945540459827" />
<node id="4233524608" x="926.2792295601685" y="-312.0014693415724" />
<node id="4233524610" x="878.5468077005353" y="-293.4866804475896" />
<node id="4233524611" x="631.8607887169346" y="-261.88901791954413" />
<node id="4233524615" x="684.7888672690606" y="-212.98080523032695" />
<node id="4233524616" x="646.8640177473426" y="-201.80208000773564" />
<node id="4233524617" x="616.7438223055797" y="-195.0146540114656" />
<node id="4233524618" x="939.2007410435472" y="-146.54093346791342" />
<node id="4233524619" x="704.0424422086217" y="-163.148551160004" />
<node id="4233524620" x="688.8830948870163" y="-156.47511672694236" />
<node id="4233524625" x="718.4543221979402" y="-86.85265195928514" />
<node id="4233524626" x="-629.9411500506103" y="-107.6784881921485" />
<node id="4233524630" x="-758.1743499523727" y="-78.1289789993316" />
<node id="4233524633" x="-633.6991429144982" y="-69.5872995541431" />
<node id="4233524636" x="-812.9323996980675" y="-54.181186218280345" />
<node id="4233524637" x="-694.9553303014254" y="-48.995655592065305" />
<node id="4233524638" x="-622.245253468398" y="-47.560470449738204" />
<node id="4233524639" x="-823.1950494319899" y="-49.700567591935396" />
<node id="4233524641" x="-799.3923246216727" y="-33.2695768205449" />
<node id="4233524644" x="-654.7828530409606" y="-32.66535400599241" />
<node id="4233524645" x="-377.82623085018713" y="-12.861429210286587" />
<node id="4233524646" x="852.6098703701282" y="15.209192803129554" />
<node id="4233524647" x="-685.7903754420113" y="-18.46290929056704" />
<node id="4233524648" x="-792.1277923635207" y="-8.569745066110045" />
<node id="4233524652" x="-597.738946344587" y="14.061165639664978" />
<node id="4233524653" x="766.1583635093411" y="36.0075453966856" />
<node id="4233524655" x="-770.1055593141355" y="21.232442833017558" />
<node id="4233524656" x="-629.1909341152059" y="26.869550238363445" />
<node id="4233524657" x="-709.1706080833683" y="27.92948363814503" />
<node id="4233524659" x="860.7116216000868" y="56.52230977313593" />
<node id="4233524660" x="-660.8904343574541" y="40.37195340404287" />
<node id="4233524665" x="-787.0089684110135" y="60.3260278981179" />
<node id="4233524667" x="758.0718384876382" y="96.35875133238733" />
<node id="4233524684" x="-653.4212856264785" y="148.9448139835149" />
<node id="4233527006" x="-232.34046568302438" y="263.1750149773434" />
<node id="4233527008" x="-209.00312400481198" y="266.9491217881441" />
<node id="4233527012" x="-428.787172019016" y="272.03013089159504" />
<node id="4233527014" x="-275.1876634664368" y="303.91200702032074" />
<node id="4233527016" x="-276.41820492665283" y="313.94501314498484" />
<node id="4233527017" x="-247.29943467047997" y="315.2524864077568" />
<node id="4233527018" x="-236.38151893136092" y="314.0215972792357" />
<node id="4233527019" x="-220.77987148892134" y="313.6190079106018" />
<node id="4233527020" x="-212.0038478167262" y="313.89006945537403" />
<node id="4233527021" x="-194.49074180738535" y="314.42041489109397" />
<node id="4233527022" x="-170.21712363278493" y="315.16290893172845" />
<node id="4233527043" x="-247.01341460307594" y="366.08935431391" />
<node id="4233527044" x="-221.85775639559142" y="366.7702431222424" />
<node id="4233527045" x="-194.3345752483001" y="366.9955144263804" />
<node id="4233527053" x="-548.3439242639579" y="380.0058989007957" />
<node id="4233527073" x="-467.93510730040725" y="487.3588193678297" />
<node id="4233527074" x="-532.58889914467" y="491.4794676466845" />
<node id="4233527081" x="-413.5788300104905" y="524.5363930207677" />
<node id="4233527085" x="-471.4646882102825" y="549.4010121813044" />
<node id="4233654430" x="753.4781353838043" y="-422.0118856546469" />
<node id="4233654439" x="770.005996222375" y="-395.97695378307253" />
<node id="4233654441" x="516.6373985733371" y="-397.2932721590623" />
<node id="4233654446" x="803.8270129601005" y="-388.86012744996697" />
<node id="4233654463" x="442.3306951671839" y="-365.6712143532932" />
<node id="4233654465" x="756.5685918385861" y="-360.42474674154073" />
<node id="4233654471" x="596.368278669077" y="-359.9790693866089" />
<node id="4233654478" x="402.3616778573487" y="-348.18759540095925" />
<node id="4233654485" x="502.4820853014244" y="-337.9954940136522" />
<node id="4233654488" x="764.13683402678" y="-323.07945495983586" />
<node id="4233654500" x="721.0647347886115" y="-307.23916079476476" />
<node id="4233654501" x="958.9717364468379" y="-302.6210356573574" />
<node id="4233654504" x="489.2739201717777" y="-304.7559411986731" />
<node id="4233654506" x="563.5787155553699" y="-304.2156070517376" />
<node id="4233654507" x="936.61060560646" y="-290.8250021687709" />
<node id="4233654514" x="849.7969340727432" y="-282.97176833683625" />
<node id="4233654516" x="218.0863156330306" y="-294.6072404352017" />
<node id="4233654517" x="676.8328786876518" y="-285.26692518778145" />
<node id="4233654523" x="235.81262341188267" y="-286.41163002327085" />
<node id="4233654533" x="802.0598939760821" y="-264.19069399451837" />
<node id="4233654536" x="919.3926897515776" y="-247.73691025935113" />
<node id="4233654546" x="749.149370436091" y="-243.0208876556717" />
<node id="4233654563" x="708.499733012286" y="-224.19821905810386" />
<node id="4233654565" x="912.3419143485371" y="-215.07213886687532" />
<node id="4233654570" x="-597.0013159194496" y="-233.84117570705712" />
<node id="4233654616" x="-368.3866356293438" y="-75.26144210807979" />
<node id="4233654621" x="-304.5205964371562" y="-54.80595438554883" />
<node id="4233654625" x="-342.6039890816901" y="-36.9862309214659" />
<node id="4999072804" x="-405.44447034748737" y="432.7776684574783" />
<node id="4999072807" x="-389.98221175163053" y="437.86014295974746" />
<node id="4999072808" x="-392.2344215690391" y="427.16493618069217" />
<node id="4999072816" x="-475.4187891330803" y="462.3886188548058" />
<node id="4999072817" x="-345.3367814968806" y="436.94506277004257" />
<node id="5034101924" x="-986.043853438925" y="116.10578425228596" />
<node id="5251925075" x="-115.90166474622674" y="266.1323431027122" />
<node id="6095495876" x="-931.3262159603182" y="99.69532413501292" />
<node id="6380513447" x="-738.0937146341894" y="149.17660448793322" />
<node id="6758737650" x="-376.82831069547683" y="323.69847580231726" />
<node id="6758737653" x="-410.2424433545675" y="336.76977848121896" />
<node id="9186411589" x="949.1476784081897" y="-123.63089569704607" />
<node id="9186411596" x="849.9370597783709" y="-365.34250404220074" />
<node id="9835164854" x="-564.982250813162" y="-1.040440066717565" />
<node id="9835164855" x="-592.6308701420203" y="-60.513196292798966" />
<node id="9835190659" x="-849.0326702864841" y="-170.03755059232935" />
<node id="9835190693" x="-799.5204649898224" y="-169.8349365396425" />
<node id="9835190695" x="-699.7773148209089" y="-232.5534238498658" />
<node id="9835190696" x="-837.729244640097" y="47.48490539891645" />
<node id="9835190697" x="-834.3022087069694" y="54.97520367242396" />
<node id="9835218071" x="-656.3317777743796" y="378.58144390489906" />
<node id="9835228889" x="-283.9636096713366" y="417.8985399296507" />
<node id="9852876993" x="432.91016330127604" y="-188.50318171363324" />
<node id="9865522290" x="-131.91994003206491" y="266.2943737129681" />
<node id="9874250264" x="-272.41281212866306" y="-69.71907005878165" />
</nodes>